Data of selected test power systems/1. IEEE RTS/RTS-GMLC/RTS_GMLC.iidm
<?xml version="1.0" encoding="UTF-8"?>
<iidm:network xmlns:iidm="http://www.powsybl.org/schema/iidm/1_4" id="RTS_GMLC" caseDate="2022-01-21T14:43:10.883+01:00" forecastDistance="0" sourceFormat="MATPOWER">
    <iidm:substation id="SUB-44">
        <iidm:voltageLevel id="VL-101" nominalV="1.0" topologyKind="BUS_BREAKER">
            <iidm:busBreakerTopology>
                <iidm:bus id="BUS-101" v="1.0468" angle="-19.13914374195608"/>
            </iidm:busBreakerTopology>
            <iidm:generator id="GEN-101" energySource="OTHER" minP="8.0" maxP="20.0" voltageRegulatorOn="true" targetP="8.0" targetV="1.0468" targetQ="4.96" bus="BUS-101" connectableBus="BUS-101" p="-8.0" q="-2.6720201821768397">
                <iidm:minMaxReactiveLimits minQ="0.0" maxQ="10.0"/>
            </iidm:generator>
            <iidm:generator id="GEN-101#0" energySource="OTHER" minP="8.0" maxP="20.0" voltageRegulatorOn="true" targetP="8.0" targetV="1.0468" targetQ="4.96" bus="BUS-101" connectableBus="BUS-101" p="-8.0" q="-2.6720201821768397">
                <iidm:minMaxReactiveLimits minQ="0.0" maxQ="10.0"/>
            </iidm:generator>
            <iidm:generator id="GEN-101#1" energySource="OTHER" minP="30.0" maxP="76.0" voltageRegulatorOn="true" targetP="76.0" targetV="1.0468" targetQ="0.14" bus="BUS-101" connectableBus="BUS-101" p="-76.0" q="-2.6720201821768397">
                <iidm:minMaxReactiveLimits minQ="-25.0" maxQ="30.0"/>
            </iidm:generator>
            <iidm:generator id="GEN-101#2" energySource="OTHER" minP="30.0" maxP="76.0" voltageRegulatorOn="true" targetP="76.0" targetV="1.0468" targetQ="0.14" bus="BUS-101" connectableBus="BUS-101" p="-76.0" q="-2.6720201821768397">
                <iidm:minMaxReactiveLimits minQ="-25.0" maxQ="30.0"/>
            </iidm:generator>
            <iidm:generator id="GEN-101#3" energySource="OTHER" minP="0.0" maxP="25.9" voltageRegulatorOn="true" targetP="0.0" targetV="1.0" targetQ="0.0" connectableBus="BUS-101">
                <iidm:minMaxReactiveLimits minQ="0.0" maxQ="0.0"/>
            </iidm:generator>
            <iidm:generator id="GEN-101#4" energySource="OTHER" minP="0.0" maxP="26.7" voltageRegulatorOn="true" targetP="0.0" targetV="1.0" targetQ="0.0" connectableBus="BUS-101">
                <iidm:minMaxReactiveLimits minQ="0.0" maxQ="0.0"/>
            </iidm:generator>
            <iidm:generator id="GEN-101#5" energySource="OTHER" minP="0.0" maxP="26.2" voltageRegulatorOn="true" targetP="0.0" targetV="1.0" targetQ="0.0" connectableBus="BUS-101">
                <iidm:minMaxReactiveLimits minQ="0.0" maxQ="0.0"/>
            </iidm:generator>
            <iidm:generator id="GEN-101#6" energySource="OTHER" minP="0.0" maxP="25.8" voltageRegulatorOn="true" targetP="0.0" targetV="1.0" targetQ="0.0" connectableBus="BUS-101">
                <iidm:minMaxReactiveLimits minQ="0.0" maxQ="0.0"/>
            </iidm:generator>
            <iidm:load id="LOAD-101" loadType="UNDEFINED" p0="108.0" q0="22.0" bus="BUS-101" connectableBus="BUS-101" p="108.0" q="22.0"/>
        </iidm:voltageLevel>
    </iidm:substation>
    <iidm:substation id="SUB-36">
        <iidm:voltageLevel id="VL-102" nominalV="1.0" topologyKind="BUS_BREAKER">
            <iidm:busBreakerTopology>
                <iidm:bus id="BUS-102" v="1.0467" angle="-19.1979707455426"/>
            </iidm:busBreakerTopology>
            <iidm:generator id="GEN-102" energySource="OTHER" minP="8.0" maxP="20.0" voltageRegulatorOn="true" targetP="8.0" targetV="1.0467" targetQ="4.88" bus="BUS-102" connectableBus="BUS-102" p="-8.0" q="-1.1667036149352077">
                <iidm:minMaxReactiveLimits minQ="0.0" maxQ="10.0"/>
            </iidm:generator>
            <iidm:generator id="GEN-102#0" energySource="OTHER" minP="8.0" maxP="20.0" voltageRegulatorOn="true" targetP="8.0" targetV="1.0467" targetQ="4.88" bus="BUS-102" connectableBus="BUS-102" p="-8.0" q="-1.1667036149352077">
                <iidm:minMaxReactiveLimits minQ="0.0" maxQ="10.0"/>
            </iidm:generator>
            <iidm:generator id="GEN-102#1" energySource="OTHER" minP="30.0" maxP="76.0" voltageRegulatorOn="true" targetP="76.0" targetV="1.0467" targetQ="-2.31" bus="BUS-102" connectableBus="BUS-102" p="-76.0" q="-1.1667036149352077">
                <iidm:minMaxReactiveLimits minQ="-25.0" maxQ="30.0"/>
            </iidm:generator>
            <iidm:generator id="GEN-102#2" energySource="OTHER" minP="30.0" maxP="76.0" voltageRegulatorOn="true" targetP="76.0" targetV="1.0467" targetQ="-2.31" bus="BUS-102" connectableBus="BUS-102" p="-76.0" q="-1.1667036149352077">
                <iidm:minMaxReactiveLimits minQ="-25.0" maxQ="30.0"/>
            </iidm:generator>
            <iidm:generator id="GEN-102#3" energySource="OTHER" minP="0.0" maxP="25.6" voltageRegulatorOn="true" targetP="0.0" targetV="1.0" targetQ="0.0" connectableBus="BUS-102">
                <iidm:minMaxReactiveLimits minQ="0.0" maxQ="0.0"/>
            </iidm:generator>
            <iidm:generator id="GEN-102#4" energySource="OTHER" minP="0.0" maxP="25.3" voltageRegulatorOn="true" targetP="0.0" targetV="1.0" targetQ="0.0" connectableBus="BUS-102">
                <iidm:minMaxReactiveLimits minQ="0.0" maxQ="0.0"/>
            </iidm:generator>
            <iidm:load id="LOAD-102" loadType="UNDEFINED" p0="97.0" q0="20.0" bus="BUS-102" connectableBus="BUS-102" p="97.0" q="20.0"/>
        </iidm:voltageLevel>
    </iidm:substation>
    <iidm:substation id="SUB-9">
        <iidm:voltageLevel id="VL-103" nominalV="1.0" topologyKind="BUS_BREAKER">
            <iidm:busBreakerTopology>
                <iidm:bus id="BUS-103" v="1.0113249761257421" angle="-18.544268559408586"/>
            </iidm:busBreakerTopology>
            <iidm:generator id="GEN-103" energySource="OTHER" minP="0.0" maxP="61.5" voltageRegulatorOn="true" targetP="0.0" targetV="1.0" targetQ="0.0" connectableBus="BUS-103">
                <iidm:minMaxReactiveLimits minQ="0.0" maxQ="0.0"/>
            </iidm:generator>
            <iidm:load id="LOAD-103" loadType="UNDEFINED" p0="180.0" q0="37.0" bus="BUS-103" connectableBus="BUS-103" p="180.0" q="37.0"/>
        </iidm:voltageLevel>
        <iidm:voltageLevel id="VL-124" nominalV="1.0" topologyKind="BUS_BREAKER">
            <iidm:busBreakerTopology>
                <iidm:bus id="BUS-124" v="1.0132187823870833" angle="-9.719607743658413"/>
            </iidm:busBreakerTopology>
        </iidm:voltageLevel>
        <iidm:twoWindingsTransformer id="TWT-103-124" r="2.0E-5" x="8.4E-4" g="0.0" b="0.0" ratedU1="1.015" ratedU2="1.0" bus1="BUS-103" connectableBus1="BUS-103" voltageLevelId1="VL-103" bus2="BUS-124" connectableBus2="BUS-124" voltageLevelId2="VL-124" p1="-184.4088250883685" q1="-1.3568331598584864" p2="185.09394647814673" q2="30.1319315305503"/>
    </iidm:substation>
    <iidm:substation id="SUB-39">
        <iidm:voltageLevel id="VL-104" nominalV="1.0" topologyKind="BUS_BREAKER">
            <iidm:busBreakerTopology>
                <iidm:bus id="BUS-104" v="1.0174645964371694" angle="-21.308941331754244"/>
            </iidm:busBreakerTopology>
            <iidm:generator id="GEN-104" energySource="OTHER" minP="0.0" maxP="26.8" voltageRegulatorOn="true" targetP="0.0" targetV="1.0" targetQ="0.0" connectableBus="BUS-104">
                <iidm:minMaxReactiveLimits minQ="0.0" maxQ="0.0"/>
            </iidm:generator>
            <iidm:load id="LOAD-104" loadType="UNDEFINED" p0="74.0" q0="15.0" bus="BUS-104" connectableBus="BUS-104" p="74.0" q="15.0"/>
        </iidm:voltageLevel>
    </iidm:substation>
    <iidm:substation id="SUB-41">
        <iidm:voltageLevel id="VL-105" nominalV="1.0" topologyKind="BUS_BREAKER">
            <iidm:busBreakerTopology>
                <iidm:bus id="BUS-105" v="1.0353876103516757" angle="-21.492352013031248"/>
            </iidm:busBreakerTopology>
            <iidm:load id="LOAD-105" loadType="UNDEFINED" p0="71.0" q0="14.0" bus="BUS-105" connectableBus="BUS-105" p="71.0" q="14.0"/>
        </iidm:voltageLevel>
    </iidm:substation>
    <iidm:substation id="SUB-48">
        <iidm:voltageLevel id="VL-106" nominalV="1.0" topologyKind="BUS_BREAKER">
            <iidm:busBreakerTopology>
                <iidm:bus id="BUS-106" v="1.0324138929890887" angle="-23.721446031901518"/>
            </iidm:busBreakerTopology>
            <iidm:load id="LOAD-106" loadType="UNDEFINED" p0="136.0" q0="28.0" bus="BUS-106" connectableBus="BUS-106" p="136.0" q="28.0"/>
            <iidm:shunt id="SHUNT-106" sectionCount="1" voltageRegulatorOn="false" bus="BUS-106" connectableBus="BUS-106" q="106.58784464368856">
                <iidm:shuntLinearModel bPerSection="-100.0" maximumSectionCount="1"/>
            </iidm:shunt>
        </iidm:voltageLevel>
    </iidm:substation>
    <iidm:substation id="SUB-50">
        <iidm:voltageLevel id="VL-107" nominalV="1.0" topologyKind="BUS_BREAKER">
            <iidm:busBreakerTopology>
                <iidm:bus id="BUS-107" v="1.05" angle="-14.552922894576295"/>
            </iidm:busBreakerTopology>
            <iidm:generator id="GEN-107" energySource="OTHER" minP="170.0" maxP="355.0" voltageRegulatorOn="true" targetP="355.0" targetV="1.05" targetQ="49.51" bus="BUS-107" connectableBus="BUS-107" p="-355.0" q="-49.51784213586379">
                <iidm:minMaxReactiveLimits minQ="-25.0" maxQ="150.0"/>
            </iidm:generator>
            <iidm:load id="LOAD-107" loadType="UNDEFINED" p0="125.0" q0="25.0" bus="BUS-107" connectableBus="BUS-107" p="125.0" q="25.0"/>
        </iidm:voltageLevel>
    </iidm:substation>
    <iidm:substation id="SUB-52">
        <iidm:voltageLevel id="VL-108" nominalV="1.0" topologyKind="BUS_BREAKER">
            <iidm:busBreakerTopology>
                <iidm:bus id="BUS-108" v="1.0167112530053142" angle="-19.90643915342574"/>
            </iidm:busBreakerTopology>
            <iidm:load id="LOAD-108" loadType="UNDEFINED" p0="171.0" q0="35.0" bus="BUS-108" connectableBus="BUS-108" p="171.0" q="35.0"/>
        </iidm:voltageLevel>
    </iidm:substation>
    <iidm:substation id="SUB-54">
        <iidm:voltageLevel id="VL-109" nominalV="1.0" topologyKind="BUS_BREAKER">
            <iidm:busBreakerTopology>
                <iidm:bus id="BUS-109" v="1.0266188648225232" angle="-19.023796022144534"/>
            </iidm:busBreakerTopology>
            <iidm:load id="LOAD-109" loadType="UNDEFINED" p0="175.0" q0="36.0" bus="BUS-109" connectableBus="BUS-109" p="175.0" q="36.0"/>
        </iidm:voltageLevel>
        <iidm:voltageLevel id="VL-110" nominalV="1.0" topologyKind="BUS_BREAKER">
            <iidm:busBreakerTopology>
                <iidm:bus id="BUS-110" v="1.0499874905293953" angle="-20.766877639590877"/>
            </iidm:busBreakerTopology>
            <iidm:load id="LOAD-110" loadType="UNDEFINED" p0="195.0" q0="40.0" bus="BUS-110" connectableBus="BUS-110" p="195.0" q="40.0"/>
        </iidm:voltageLevel>
        <iidm:voltageLevel id="VL-111" nominalV="1.0" topologyKind="BUS_BREAKER">
            <iidm:busBreakerTopology>
                <iidm:bus id="BUS-111" v="1.0270377275435352" angle="-14.647229457675078"/>
            </iidm:busBreakerTopology>
        </iidm:voltageLevel>
        <iidm:voltageLevel id="VL-112" nominalV="1.0" topologyKind="BUS_BREAKER">
            <iidm:busBreakerTopology>
                <iidm:bus id="BUS-112" v="1.0196423862206148" angle="-12.959480023597864"/>
            </iidm:busBreakerTopology>
        </iidm:voltageLevel>
        <iidm:twoWindingsTransformer id="TWT-109-111" r="2.0E-5" x="8.4E-4" g="0.0" b="0.0" ratedU1="1.03" ratedU2="1.0" bus1="BUS-109" connectableBus1="BUS-109" voltageLevelId1="VL-109" bus2="BUS-111" connectableBus2="BUS-111" voltageLevelId2="VL-111" p1="-93.7155826711591" q1="-30.192352787777416" p2="93.9107456457905" q2="38.38919772230063"/>
        <iidm:twoWindingsTransformer id="TWT-109-112" r="2.0E-5" x="8.4E-4" g="0.0" b="0.0" ratedU1="1.03" ratedU2="1.0" bus1="BUS-109" connectableBus1="BUS-109" voltageLevelId1="VL-109" bus2="BUS-112" connectableBus2="BUS-112" voltageLevelId2="VL-112" p1="-128.23077542787874" q1="-17.378469987707835" p2="128.56788790318237" q2="31.537193950463482"/>
        <iidm:twoWindingsTransformer id="TWT-110-111" r="2.0E-5" x="8.4E-4" g="0.0" b="0.0" ratedU1="1.015" ratedU2="1.0" bus1="BUS-110" connectableBus1="BUS-110" voltageLevelId1="VL-110" bus2="BUS-111" connectableBus2="BUS-111" voltageLevelId2="VL-111" p1="-134.36937977940954" q1="19.560329028974316" p2="134.71396880251442" q2="-5.087590058564724"/>
        <iidm:twoWindingsTransformer id="TWT-110-112" r="2.0E-5" x="8.4E-4" g="0.0" b="0.0" ratedU1="1.015" ratedU2="1.0" bus1="BUS-110" connectableBus1="BUS-110" voltageLevelId1="VL-110" bus2="BUS-112" connectableBus2="BUS-112" voltageLevelId2="VL-112" p1="-169.77080925060207" q1="33.943058394738735" p2="170.3310081925602" q2="-10.414702832495953"/>
    </iidm:substation>
    <iidm:substation id="SUB-56">
        <iidm:voltageLevel id="VL-113" nominalV="1.0" topologyKind="BUS_BREAKER">
            <iidm:busBreakerTopology>
                <iidm:bus id="BUS-113" v="1.0346769047099822" angle="-10.563638586265688"/>
            </iidm:busBreakerTopology>
            <iidm:generator id="GEN-113" energySource="OTHER" minP="22.0" maxP="55.0" voltageRegulatorOn="true" targetP="55.0" targetV="1.0347" targetQ="19.0" bus="BUS-113" connectableBus="BUS-113" p="-55.0" q="-19.0">
                <iidm:minMaxReactiveLimits minQ="-15.0" maxQ="19.0"/>
            </iidm:generator>
            <iidm:generator id="GEN-113#0" energySource="OTHER" minP="22.0" maxP="55.0" voltageRegulatorOn="true" targetP="55.0" targetV="1.0347" targetQ="19.0" bus="BUS-113" connectableBus="BUS-113" p="-55.0" q="-19.0">
                <iidm:minMaxReactiveLimits minQ="-15.0" maxQ="19.0"/>
            </iidm:generator>
            <iidm:generator id="GEN-113#1" energySource="OTHER" minP="22.0" maxP="55.0" voltageRegulatorOn="true" targetP="55.0" targetV="1.0347" targetQ="19.0" bus="BUS-113" connectableBus="BUS-113" p="-55.0" q="-19.0">
                <iidm:minMaxReactiveLimits minQ="-15.0" maxQ="19.0"/>
            </iidm:generator>
            <iidm:generator id="GEN-113#2" energySource="OTHER" minP="22.0" maxP="55.0" voltageRegulatorOn="true" targetP="55.0" targetV="1.0347" targetQ="19.0" bus="BUS-113" connectableBus="BUS-113" p="-55.0" q="-19.0">
                <iidm:minMaxReactiveLimits minQ="-15.0" maxQ="19.0"/>
            </iidm:generator>
            <iidm:generator id="GEN-113#3" energySource="OTHER" minP="0.0" maxP="93.6" voltageRegulatorOn="true" targetP="0.0" targetV="1.0" targetQ="0.0" connectableBus="BUS-113">
                <iidm:minMaxReactiveLimits minQ="0.0" maxQ="0.0"/>
            </iidm:generator>
            <iidm:load id="LOAD-113" loadType="UNDEFINED" p0="265.0" q0="54.0" bus="BUS-113" connectableBus="BUS-113" p="265.0" q="54.0"/>
        </iidm:voltageLevel>
    </iidm:substation>
    <iidm:substation id="SUB-57">
        <iidm:voltageLevel id="VL-114" nominalV="1.0" topologyKind="BUS_BREAKER">
            <iidm:busBreakerTopology>
                <iidm:bus id="BUS-114" v="1.0441" angle="-13.115659266039863"/>
            </iidm:busBreakerTopology>
            <iidm:generator id="GEN-114" energySource="OTHER" minP="0.0" maxP="0.0" voltageRegulatorOn="true" targetP="0.0" targetV="1.0441" targetQ="103.32" bus="BUS-114" connectableBus="BUS-114" p="-0.0" q="-103.22583433837409">
                <iidm:minMaxReactiveLimits minQ="-50.0" maxQ="200.0"/>
            </iidm:generator>
            <iidm:load id="LOAD-114" loadType="UNDEFINED" p0="194.0" q0="39.0" bus="BUS-114" connectableBus="BUS-114" p="194.0" q="39.0"/>
        </iidm:voltageLevel>
    </iidm:substation>
    <iidm:substation id="SUB-58">
        <iidm:voltageLevel id="VL-115" nominalV="1.0" topologyKind="BUS_BREAKER">
            <iidm:busBreakerTopology>
                <iidm:bus id="BUS-115" v="1.0427811349475404" angle="-4.586470801112845"/>
            </iidm:busBreakerTopology>
            <iidm:generator id="GEN-115" energySource="OTHER" minP="5.0" maxP="12.0" voltageRegulatorOn="true" targetP="5.0" targetV="1.0428" targetQ="6.0" bus="BUS-115" connectableBus="BUS-115" p="-5.0" q="-6.0">
                <iidm:minMaxReactiveLimits minQ="0.0" maxQ="6.0"/>
            </iidm:generator>
            <iidm:generator id="GEN-115#0" energySource="OTHER" minP="5.0" maxP="12.0" voltageRegulatorOn="true" targetP="5.0" targetV="1.0428" targetQ="6.0" bus="BUS-115" connectableBus="BUS-115" p="-5.0" q="-6.0">
                <iidm:minMaxReactiveLimits minQ="0.0" maxQ="6.0"/>
            </iidm:generator>
            <iidm:generator id="GEN-115#1" energySource="OTHER" minP="62.0" maxP="155.0" voltageRegulatorOn="true" targetP="155.0" targetV="1.0428" targetQ="80.0" bus="BUS-115" connectableBus="BUS-115" p="-155.0" q="-80.0">
                <iidm:minMaxReactiveLimits minQ="-50.0" maxQ="80.0"/>
            </iidm:generator>
            <iidm:load id="LOAD-115" loadType="UNDEFINED" p0="317.0" q0="64.0" bus="BUS-115" connectableBus="BUS-115" p="317.0" q="64.0"/>
        </iidm:voltageLevel>
    </iidm:substation>
    <iidm:substation id="SUB-60">
        <iidm:voltageLevel id="VL-116" nominalV="1.0" topologyKind="BUS_BREAKER">
            <iidm:busBreakerTopology>
                <iidm:bus id="BUS-116" v="1.0461" angle="-4.7399306810702875"/>
            </iidm:busBreakerTopology>
            <iidm:generator id="GEN-116" energySource="OTHER" minP="62.0" maxP="155.0" voltageRegulatorOn="true" targetP="155.0" targetV="1.0461" targetQ="80.0" bus="BUS-116" connectableBus="BUS-116" p="-155.0" q="-79.99118716471597">
                <iidm:minMaxReactiveLimits minQ="-50.0" maxQ="80.0"/>
            </iidm:generator>
            <iidm:load id="LOAD-116" loadType="UNDEFINED" p0="100.0" q0="20.0" bus="BUS-116" connectableBus="BUS-116" p="100.0" q="20.0"/>
        </iidm:voltageLevel>
    </iidm:substation>
    <iidm:substation id="SUB-2">
        <iidm:voltageLevel id="VL-117" nominalV="1.0" topologyKind="BUS_BREAKER">
            <iidm:busBreakerTopology>
                <iidm:bus id="BUS-117" v="1.0483347030363588" angle="-1.4259333624841475"/>
            </iidm:busBreakerTopology>
        </iidm:voltageLevel>
    </iidm:substation>
    <iidm:substation id="SUB-4">
        <iidm:voltageLevel id="VL-118" nominalV="1.0" topologyKind="BUS_BREAKER">
            <iidm:busBreakerTopology>
                <iidm:bus id="BUS-118" v="1.05" angle="-0.6119138495075856"/>
            </iidm:busBreakerTopology>
            <iidm:generator id="GEN-118" energySource="OTHER" minP="170.0" maxP="355.0" voltageRegulatorOn="true" targetP="355.0" targetV="1.05" targetQ="68.43" bus="BUS-118" connectableBus="BUS-118" p="-355.0" q="-68.45248800712535">
                <iidm:minMaxReactiveLimits minQ="-25.0" maxQ="150.0"/>
            </iidm:generator>
            <iidm:generator id="GEN-118#0" energySource="OTHER" minP="0.0" maxP="9.3" voltageRegulatorOn="true" targetP="0.0" targetV="1.0" targetQ="0.0" connectableBus="BUS-118">
                <iidm:minMaxReactiveLimits minQ="0.0" maxQ="0.0"/>
            </iidm:generator>
            <iidm:generator id="GEN-118#1" energySource="OTHER" minP="0.0" maxP="9.7" voltageRegulatorOn="true" targetP="0.0" targetV="1.0" targetQ="0.0" connectableBus="BUS-118">
                <iidm:minMaxReactiveLimits minQ="0.0" maxQ="0.0"/>
            </iidm:generator>
            <iidm:generator id="GEN-118#2" energySource="OTHER" minP="0.0" maxP="9.4" voltageRegulatorOn="true" targetP="0.0" targetV="1.0" targetQ="0.0" connectableBus="BUS-118">
                <iidm:minMaxReactiveLimits minQ="0.0" maxQ="0.0"/>
            </iidm:generator>
            <iidm:generator id="GEN-118#3" energySource="OTHER" minP="0.0" maxP="9.1" voltageRegulatorOn="true" targetP="0.0" targetV="1.0" targetQ="0.0" connectableBus="BUS-118">
                <iidm:minMaxReactiveLimits minQ="0.0" maxQ="0.0"/>
            </iidm:generator>
            <iidm:generator id="GEN-118#4" energySource="OTHER" minP="0.0" maxP="9.1" voltageRegulatorOn="true" targetP="0.0" targetV="1.0" targetQ="0.0" connectableBus="BUS-118">
                <iidm:minMaxReactiveLimits minQ="0.0" maxQ="0.0"/>
            </iidm:generator>
            <iidm:generator id="GEN-118#5" energySource="OTHER" minP="0.0" maxP="9.7" voltageRegulatorOn="true" targetP="0.0" targetV="1.0" targetQ="0.0" connectableBus="BUS-118">
                <iidm:minMaxReactiveLimits minQ="0.0" maxQ="0.0"/>
            </iidm:generator>
            <iidm:generator id="GEN-118#6" energySource="OTHER" minP="0.0" maxP="11.8" voltageRegulatorOn="true" targetP="0.0" targetV="1.0" targetQ="0.0" connectableBus="BUS-118">
                <iidm:minMaxReactiveLimits minQ="0.0" maxQ="0.0"/>
            </iidm:generator>
            <iidm:generator id="GEN-118#7" energySource="OTHER" minP="0.0" maxP="11.2" voltageRegulatorOn="true" targetP="0.0" targetV="1.0" targetQ="0.0" connectableBus="BUS-118">
                <iidm:minMaxReactiveLimits minQ="0.0" maxQ="0.0"/>
            </iidm:generator>
            <iidm:generator id="GEN-118#8" energySource="OTHER" minP="0.0" maxP="10.3" voltageRegulatorOn="true" targetP="0.0" targetV="1.0" targetQ="0.0" connectableBus="BUS-118">
                <iidm:minMaxReactiveLimits minQ="0.0" maxQ="0.0"/>
            </iidm:generator>
            <iidm:generator id="GEN-118#9" energySource="OTHER" minP="0.0" maxP="4.5" voltageRegulatorOn="true" targetP="0.0" targetV="1.0" targetQ="0.0" connectableBus="BUS-118">
                <iidm:minMaxReactiveLimits minQ="0.0" maxQ="0.0"/>
            </iidm:generator>
            <iidm:load id="LOAD-118" loadType="UNDEFINED" p0="333.0" q0="68.0" bus="BUS-118" connectableBus="BUS-118" p="333.0" q="68.0"/>
        </iidm:voltageLevel>
    </iidm:substation>
    <iidm:substation id="SUB-6">
        <iidm:voltageLevel id="VL-119" nominalV="1.0" topologyKind="BUS_BREAKER">
            <iidm:busBreakerTopology>
                <iidm:bus id="BUS-119" v="1.0397564529165808" angle="-5.19597170574646"/>
            </iidm:busBreakerTopology>
            <iidm:generator id="GEN-119" energySource="OTHER" minP="0.0" maxP="66.6" voltageRegulatorOn="true" targetP="0.0" targetV="1.0" targetQ="0.0" connectableBus="BUS-119">
                <iidm:minMaxReactiveLimits minQ="0.0" maxQ="0.0"/>
            </iidm:generator>
            <iidm:load id="LOAD-119" loadType="UNDEFINED" p0="181.0" q0="37.0" bus="BUS-119" connectableBus="BUS-119" p="181.0" q="37.0"/>
        </iidm:voltageLevel>
    </iidm:substation>
    <iidm:substation id="SUB-18">
        <iidm:voltageLevel id="VL-120" nominalV="1.0" topologyKind="BUS_BREAKER">
            <iidm:busBreakerTopology>
                <iidm:bus id="BUS-120" v="1.0438929214393808" angle="-3.7170983558081083"/>
            </iidm:busBreakerTopology>
            <iidm:load id="LOAD-120" loadType="UNDEFINED" p0="128.0" q0="26.0" bus="BUS-120" connectableBus="BUS-120" p="128.0" q="26.0"/>
        </iidm:voltageLevel>
    </iidm:substation>
    <iidm:substation id="SUB-19">
        <iidm:voltageLevel id="VL-121" nominalV="1.0" topologyKind="BUS_BREAKER">
            <iidm:busBreakerTopology>
                <iidm:bus id="BUS-121" v="1.05" angle="0.0"/>
            </iidm:busBreakerTopology>
            <iidm:generator id="GEN-121" energySource="OTHER" minP="396.0" maxP="400.0" voltageRegulatorOn="true" targetP="400.0" targetV="1.05" targetQ="-21.87" bus="BUS-121" connectableBus="BUS-121" p="-400.0" q="21.84818819539635">
                <iidm:minMaxReactiveLimits minQ="-50.0" maxQ="200.0"/>
            </iidm:generator>
        </iidm:voltageLevel>
    </iidm:substation>
    <iidm:substation id="SUB-20">
        <iidm:voltageLevel id="VL-122" nominalV="1.0" topologyKind="BUS_BREAKER">
            <iidm:busBreakerTopology>
                <iidm:bus id="BUS-122" v="1.05" angle="5.952209029432864"/>
            </iidm:busBreakerTopology>
            <iidm:generator id="GEN-122" energySource="OTHER" minP="0.0" maxP="50.0" voltageRegulatorOn="true" targetP="50.0" targetV="1.05" targetQ="-6.79" bus="BUS-122" connectableBus="BUS-122" p="-50.0" q="6.793501883152531">
                <iidm:minMaxReactiveLimits minQ="-10.0" maxQ="16.0"/>
            </iidm:generator>
            <iidm:generator id="GEN-122#0" energySource="OTHER" minP="0.0" maxP="50.0" voltageRegulatorOn="true" targetP="50.0" targetV="1.05" targetQ="-6.79" bus="BUS-122" connectableBus="BUS-122" p="-50.0" q="6.793501883152531">
                <iidm:minMaxReactiveLimits minQ="-10.0" maxQ="16.0"/>
            </iidm:generator>
            <iidm:generator id="GEN-122#1" energySource="OTHER" minP="0.0" maxP="50.0" voltageRegulatorOn="true" targetP="50.0" targetV="1.05" targetQ="-6.79" bus="BUS-122" connectableBus="BUS-122" p="-50.0" q="6.793501883152531">
                <iidm:minMaxReactiveLimits minQ="-10.0" maxQ="16.0"/>
            </iidm:generator>
            <iidm:generator id="GEN-122#2" energySource="OTHER" minP="0.0" maxP="50.0" voltageRegulatorOn="true" targetP="50.0" targetV="1.05" targetQ="-6.79" bus="BUS-122" connectableBus="BUS-122" p="-50.0" q="6.793501883152531">
                <iidm:minMaxReactiveLimits minQ="-10.0" maxQ="16.0"/>
            </iidm:generator>
            <iidm:generator id="GEN-122#3" energySource="OTHER" minP="0.0" maxP="50.0" voltageRegulatorOn="true" targetP="50.0" targetV="1.05" targetQ="-6.79" bus="BUS-122" connectableBus="BUS-122" p="-50.0" q="6.793501883152531">
                <iidm:minMaxReactiveLimits minQ="-10.0" maxQ="16.0"/>
            </iidm:generator>
            <iidm:generator id="GEN-122#4" energySource="OTHER" minP="0.0" maxP="50.0" voltageRegulatorOn="true" targetP="50.0" targetV="1.05" targetQ="-6.79" bus="BUS-122" connectableBus="BUS-122" p="-50.0" q="6.793501883152531">
                <iidm:minMaxReactiveLimits minQ="-10.0" maxQ="16.0"/>
            </iidm:generator>
            <iidm:generator id="GEN-122#5" energySource="OTHER" minP="0.0" maxP="713.5" voltageRegulatorOn="true" targetP="0.0" targetV="1.0" targetQ="0.0" connectableBus="BUS-122">
                <iidm:minMaxReactiveLimits minQ="0.0" maxQ="0.0"/>
            </iidm:generator>
        </iidm:voltageLevel>
    </iidm:substation>
    <iidm:substation id="SUB-22">
        <iidm:voltageLevel id="VL-123" nominalV="1.0" topologyKind="BUS_BREAKER">
            <iidm:busBreakerTopology>
                <iidm:bus id="BUS-123" v="1.05" angle="-2.185299520510603"/>
            </iidm:busBreakerTopology>
            <iidm:generator id="GEN-123" energySource="OTHER" minP="62.0" maxP="155.0" voltageRegulatorOn="true" targetP="155.0" targetV="1.05" targetQ="-5.19" bus="BUS-123" connectableBus="BUS-123" p="-155.0" q="-5.021903733699889">
                <iidm:minMaxReactiveLimits minQ="-50.0" maxQ="80.0"/>
            </iidm:generator>
            <iidm:generator id="GEN-123#0" energySource="OTHER" minP="140.0" maxP="350.0" voltageRegulatorOn="true" targetP="350.0" targetV="1.05" targetQ="28.41" bus="BUS-123" connectableBus="BUS-123" p="-350.0" q="-5.021903733699889">
                <iidm:minMaxReactiveLimits minQ="-25.0" maxQ="150.0"/>
            </iidm:generator>
            <iidm:generator id="GEN-123#1" energySource="OTHER" minP="22.0" maxP="55.0" voltageRegulatorOn="true" targetP="55.0" targetV="1.05" targetQ="0.62" bus="BUS-123" connectableBus="BUS-123" p="-55.0" q="-5.021903733699889">
                <iidm:minMaxReactiveLimits minQ="-15.0" maxQ="19.0"/>
            </iidm:generator>
            <iidm:generator id="GEN-123#2" energySource="OTHER" minP="22.0" maxP="55.0" voltageRegulatorOn="true" targetP="55.0" targetV="1.05" targetQ="0.62" bus="BUS-123" connectableBus="BUS-123" p="-55.0" q="-5.021903733699889">
                <iidm:minMaxReactiveLimits minQ="-15.0" maxQ="19.0"/>
            </iidm:generator>
            <iidm:generator id="GEN-123#3" energySource="OTHER" minP="22.0" maxP="55.0" voltageRegulatorOn="true" targetP="55.0" targetV="1.05" targetQ="0.62" bus="BUS-123" connectableBus="BUS-123" p="-55.0" q="-5.021903733699889">
                <iidm:minMaxReactiveLimits minQ="-15.0" maxQ="19.0"/>
            </iidm:generator>
        </iidm:voltageLevel>
    </iidm:substation>
    <iidm:substation id="SUB-10">
        <iidm:voltageLevel id="VL-201" nominalV="1.0" topologyKind="BUS_BREAKER">
            <iidm:busBreakerTopology>
                <iidm:bus id="BUS-201" v="1.05" angle="-23.174766999121484"/>
            </iidm:busBreakerTopology>
            <iidm:generator id="GEN-201" energySource="OTHER" minP="8.0" maxP="20.0" voltageRegulatorOn="true" targetP="8.0" targetV="1.05" targetQ="5.29" bus="BUS-201" connectableBus="BUS-201" p="-8.0" q="-5.434664366048552">
                <iidm:minMaxReactiveLimits minQ="0.0" maxQ="10.0"/>
            </iidm:generator>
            <iidm:generator id="GEN-201#0" energySource="OTHER" minP="8.0" maxP="20.0" voltageRegulatorOn="true" targetP="8.0" targetV="1.05" targetQ="5.29" bus="BUS-201" connectableBus="BUS-201" p="-8.0" q="-5.434664366048552">
                <iidm:minMaxReactiveLimits minQ="0.0" maxQ="10.0"/>
            </iidm:generator>
            <iidm:generator id="GEN-201#1" energySource="OTHER" minP="30.0" maxP="76.0" voltageRegulatorOn="true" targetP="76.0" targetV="1.05" targetQ="6.99" bus="BUS-201" connectableBus="BUS-201" p="-76.0" q="-5.434664366048552">
                <iidm:minMaxReactiveLimits minQ="-25.0" maxQ="30.0"/>
            </iidm:generator>
            <iidm:generator id="GEN-201#2" energySource="OTHER" minP="0.0" maxP="50.0" voltageRegulatorOn="true" targetP="50.0" targetV="1.05" targetQ="4.15" bus="BUS-201" connectableBus="BUS-201" p="-50.0" q="-5.434664366048552">
                <iidm:minMaxReactiveLimits minQ="-10.0" maxQ="16.0"/>
            </iidm:generator>
            <iidm:load id="LOAD-201" loadType="UNDEFINED" p0="108.0" q0="22.0" bus="BUS-201" connectableBus="BUS-201" p="108.0" q="22.0"/>
        </iidm:voltageLevel>
    </iidm:substation>
    <iidm:substation id="SUB-12">
        <iidm:voltageLevel id="VL-202" nominalV="1.0" topologyKind="BUS_BREAKER">
            <iidm:busBreakerTopology>
                <iidm:bus id="BUS-202" v="1.05" angle="-23.214597707388478"/>
            </iidm:busBreakerTopology>
            <iidm:generator id="GEN-202" energySource="OTHER" minP="8.0" maxP="20.0" voltageRegulatorOn="true" targetP="8.0" targetV="1.05" targetQ="5.13" bus="BUS-202" connectableBus="BUS-202" p="-8.0" q="-3.5704838658782956">
                <iidm:minMaxReactiveLimits minQ="0.0" maxQ="10.0"/>
            </iidm:generator>
            <iidm:generator id="GEN-202#0" energySource="OTHER" minP="8.0" maxP="20.0" voltageRegulatorOn="true" targetP="8.0" targetV="1.05" targetQ="5.13" bus="BUS-202" connectableBus="BUS-202" p="-8.0" q="-3.5704838658782956">
                <iidm:minMaxReactiveLimits minQ="0.0" maxQ="10.0"/>
            </iidm:generator>
            <iidm:generator id="GEN-202#1" energySource="OTHER" minP="30.0" maxP="76.0" voltageRegulatorOn="true" targetP="76.0" targetV="1.05" targetQ="2.01" bus="BUS-202" connectableBus="BUS-202" p="-76.0" q="-3.5704838658782956">
                <iidm:minMaxReactiveLimits minQ="-25.0" maxQ="30.0"/>
            </iidm:generator>
            <iidm:generator id="GEN-202#2" energySource="OTHER" minP="30.0" maxP="76.0" voltageRegulatorOn="true" targetP="76.0" targetV="1.05" targetQ="2.01" bus="BUS-202" connectableBus="BUS-202" p="-76.0" q="-3.5704838658782956">
                <iidm:minMaxReactiveLimits minQ="-25.0" maxQ="30.0"/>
            </iidm:generator>
            <iidm:load id="LOAD-202" loadType="UNDEFINED" p0="97.0" q0="20.0" bus="BUS-202" connectableBus="BUS-202" p="97.0" q="20.0"/>
        </iidm:voltageLevel>
    </iidm:substation>
    <iidm:substation id="SUB-14">
        <iidm:voltageLevel id="VL-203" nominalV="1.0" topologyKind="BUS_BREAKER">
            <iidm:busBreakerTopology>
                <iidm:bus id="BUS-203" v="1.018529351298696" angle="-19.684565601223646"/>
            </iidm:busBreakerTopology>
            <iidm:load id="LOAD-203" loadType="UNDEFINED" p0="180.0" q0="37.0" bus="BUS-203" connectableBus="BUS-203" p="180.0" q="37.0"/>
        </iidm:voltageLevel>
        <iidm:voltageLevel id="VL-224" nominalV="1.0" topologyKind="BUS_BREAKER">
            <iidm:busBreakerTopology>
                <iidm:bus id="BUS-224" v="1.0165748272104906" angle="-10.949223783823937"/>
            </iidm:busBreakerTopology>
        </iidm:voltageLevel>
        <iidm:twoWindingsTransformer id="TWT-203-224" r="2.0E-5" x="8.4E-4" g="0.0" b="0.0" ratedU1="1.015" ratedU2="1.0" bus1="BUS-203" connectableBus1="BUS-203" voltageLevelId1="VL-203" bus2="BUS-224" connectableBus2="BUS-224" voltageLevelId2="VL-224" p1="-184.36665852486192" q1="2.8297904573789023" p2="185.04193567149235" q2="25.531849701100708"/>
    </iidm:substation>
    <iidm:substation id="SUB-16">
        <iidm:voltageLevel id="VL-204" nominalV="1.0" topologyKind="BUS_BREAKER">
            <iidm:busBreakerTopology>
                <iidm:bus id="BUS-204" v="1.0152641530356292" angle="-24.992899350908147"/>
            </iidm:busBreakerTopology>
            <iidm:load id="LOAD-204" loadType="UNDEFINED" p0="74.0" q0="15.0" bus="BUS-204" connectableBus="BUS-204" p="74.0" q="15.0"/>
        </iidm:voltageLevel>
    </iidm:substation>
    <iidm:substation id="SUB-25">
        <iidm:voltageLevel id="VL-205" nominalV="1.0" topologyKind="BUS_BREAKER">
            <iidm:busBreakerTopology>
                <iidm:bus id="BUS-205" v="1.0334574493269455" angle="-25.492948933475624"/>
            </iidm:busBreakerTopology>
            <iidm:load id="LOAD-205" loadType="UNDEFINED" p0="71.0" q0="14.0" bus="BUS-205" connectableBus="BUS-205" p="71.0" q="14.0"/>
        </iidm:voltageLevel>
    </iidm:substation>
    <iidm:substation id="SUB-26">
        <iidm:voltageLevel id="VL-206" nominalV="1.0" topologyKind="BUS_BREAKER">
            <iidm:busBreakerTopology>
                <iidm:bus id="BUS-206" v="1.0275301167419355" angle="-27.718509204982364"/>
            </iidm:busBreakerTopology>
            <iidm:load id="LOAD-206" loadType="UNDEFINED" p0="136.0" q0="28.0" bus="BUS-206" connectableBus="BUS-206" p="136.0" q="28.0"/>
            <iidm:shunt id="SHUNT-206" sectionCount="1" voltageRegulatorOn="false" bus="BUS-206" connectableBus="BUS-206" q="105.58181408116955">
                <iidm:shuntLinearModel bPerSection="-100.0" maximumSectionCount="1"/>
            </iidm:shunt>
        </iidm:voltageLevel>
    </iidm:substation>
    <iidm:substation id="SUB-27">
        <iidm:voltageLevel id="VL-207" nominalV="1.0" topologyKind="BUS_BREAKER">
            <iidm:busBreakerTopology>
                <iidm:bus id="BUS-207" v="0.9698984659280708" angle="-32.95572587462547"/>
            </iidm:busBreakerTopology>
            <iidm:generator id="GEN-207" energySource="OTHER" minP="22.0" maxP="55.0" voltageRegulatorOn="true" targetP="55.0" targetV="0.9699" targetQ="19.0" bus="BUS-207" connectableBus="BUS-207" p="-55.0" q="-19.0">
                <iidm:minMaxReactiveLimits minQ="-15.0" maxQ="19.0"/>
            </iidm:generator>
            <iidm:generator id="GEN-207#0" energySource="OTHER" minP="22.0" maxP="55.0" voltageRegulatorOn="true" targetP="55.0" targetV="0.9699" targetQ="19.0" bus="BUS-207" connectableBus="BUS-207" p="-55.0" q="-19.0">
                <iidm:minMaxReactiveLimits minQ="-15.0" maxQ="19.0"/>
            </iidm:generator>
            <iidm:load id="LOAD-207" loadType="UNDEFINED" p0="125.0" q0="25.0" bus="BUS-207" connectableBus="BUS-207" p="125.0" q="25.0"/>
        </iidm:voltageLevel>
    </iidm:substation>
    <iidm:substation id="SUB-28">
        <iidm:voltageLevel id="VL-208" nominalV="1.0" topologyKind="BUS_BREAKER">
            <iidm:busBreakerTopology>
                <iidm:bus id="BUS-208" v="0.9637650935697625" angle="-32.259523890159855"/>
            </iidm:busBreakerTopology>
            <iidm:load id="LOAD-208" loadType="UNDEFINED" p0="171.0" q0="35.0" bus="BUS-208" connectableBus="BUS-208" p="171.0" q="35.0"/>
        </iidm:voltageLevel>
    </iidm:substation>
    <iidm:substation id="SUB-24">
        <iidm:voltageLevel id="VL-209" nominalV="1.0" topologyKind="BUS_BREAKER">
            <iidm:busBreakerTopology>
                <iidm:bus id="BUS-209" v="1.0200489081688289" angle="-22.4095534100423"/>
            </iidm:busBreakerTopology>
            <iidm:load id="LOAD-209" loadType="UNDEFINED" p0="175.0" q0="36.0" bus="BUS-209" connectableBus="BUS-209" p="175.0" q="36.0"/>
        </iidm:voltageLevel>
        <iidm:voltageLevel id="VL-210" nominalV="1.0" topologyKind="BUS_BREAKER">
            <iidm:busBreakerTopology>
                <iidm:bus id="BUS-210" v="1.0427844850527939" angle="-24.726919163629972"/>
            </iidm:busBreakerTopology>
            <iidm:load id="LOAD-210" loadType="UNDEFINED" p0="195.0" q0="40.0" bus="BUS-210" connectableBus="BUS-210" p="195.0" q="40.0"/>
        </iidm:voltageLevel>
        <iidm:voltageLevel id="VL-211" nominalV="1.0" topologyKind="BUS_BREAKER">
            <iidm:busBreakerTopology>
                <iidm:bus id="BUS-211" v="1.0283494239943498" angle="-16.513672768792176"/>
            </iidm:busBreakerTopology>
        </iidm:voltageLevel>
        <iidm:voltageLevel id="VL-212" nominalV="1.0" topologyKind="BUS_BREAKER">
            <iidm:busBreakerTopology>
                <iidm:bus id="BUS-212" v="1.0177795741496691" angle="-14.727733339226377"/>
            </iidm:busBreakerTopology>
            <iidm:generator id="GEN-212" energySource="OTHER" minP="30.0" maxP="200.0" voltageRegulatorOn="true" targetP="0.0" targetV="1.0" targetQ="0.0" connectableBus="BUS-212">
                <iidm:minMaxReactiveLimits minQ="0.0" maxQ="0.0"/>
            </iidm:generator>
        </iidm:voltageLevel>
        <iidm:twoWindingsTransformer id="TWT-209-211" r="2.0E-5" x="8.4E-4" g="0.0" b="0.0" ratedU1="1.03" ratedU2="1.0" bus1="BUS-209" connectableBus1="BUS-209" voltageLevelId1="VL-209" bus2="BUS-211" connectableBus2="BUS-211" voltageLevelId2="VL-211" p1="-125.38196980813008" q1="-35.41500616050005" p2="125.72812327172132" q2="49.953451631334225"/>
        <iidm:twoWindingsTransformer id="TWT-209-212" r="2.0E-5" x="8.4E-4" g="0.0" b="0.0" ratedU1="1.03" ratedU2="1.0" bus1="BUS-209" connectableBus1="BUS-209" voltageLevelId1="VL-209" bus2="BUS-212" connectableBus2="BUS-212" voltageLevelId2="VL-212" p1="-160.8203046907096" q1="-17.754354823050857" p2="161.35413760411342" q2="40.17533718601123"/>
        <iidm:twoWindingsTransformer id="TWT-210-211" r="2.0E-5" x="8.4E-4" g="0.0" b="0.0" ratedU1="1.015" ratedU2="1.0" bus1="BUS-210" connectableBus1="BUS-210" voltageLevelId1="VL-210" bus2="BUS-211" connectableBus2="BUS-211" voltageLevelId2="VL-211" p1="-179.2971486371171" q1="15.976145781888407" p2="179.91112863322172" q2="9.811014054503907"/>
        <iidm:twoWindingsTransformer id="TWT-210-212" r="2.0E-5" x="8.4E-4" g="0.0" b="0.0" ratedU1="1.015" ratedU2="1.0" bus1="BUS-210" connectableBus1="BUS-210" voltageLevelId1="VL-210" bus2="BUS-212" connectableBus2="BUS-212" voltageLevelId2="VL-212" p1="-215.28987796699727" q1="35.768782000105155" p2="216.19237477330523" q2="2.136083864829454"/>
    </iidm:substation>
    <iidm:substation id="SUB-29">
        <iidm:voltageLevel id="VL-213" nominalV="1.0" topologyKind="BUS_BREAKER">
            <iidm:busBreakerTopology>
                <iidm:bus id="BUS-213" v="1.05" angle="-10.953942215394717"/>
            </iidm:busBreakerTopology>
            <iidm:generator id="GEN-213" energySource="OTHER" minP="170.0" maxP="355.0" voltageRegulatorOn="true" targetP="355.0" targetV="1.05" targetQ="135.8" bus="BUS-213" connectableBus="BUS-213" p="-355.0" q="-116.25108895158294">
                <iidm:minMaxReactiveLimits minQ="-25.0" maxQ="150.0"/>
            </iidm:generator>
            <iidm:generator id="GEN-213#0" energySource="OTHER" minP="22.0" maxP="55.0" voltageRegulatorOn="true" targetP="55.0" targetV="1.05" targetQ="9.23" bus="BUS-213" connectableBus="BUS-213" p="-55.0" q="-19.0">
                <iidm:minMaxReactiveLimits minQ="-15.0" maxQ="19.0"/>
            </iidm:generator>
            <iidm:generator id="GEN-213#1" energySource="OTHER" minP="22.0" maxP="55.0" voltageRegulatorOn="true" targetP="55.0" targetV="1.05" targetQ="9.23" bus="BUS-213" connectableBus="BUS-213" p="-55.0" q="-19.0">
                <iidm:minMaxReactiveLimits minQ="-15.0" maxQ="19.0"/>
            </iidm:generator>
            <iidm:generator id="GEN-213#2" energySource="OTHER" minP="0.0" maxP="13.2" voltageRegulatorOn="true" targetP="0.0" targetV="1.0" targetQ="0.0" connectableBus="BUS-213">
                <iidm:minMaxReactiveLimits minQ="0.0" maxQ="0.0"/>
            </iidm:generator>
            <iidm:load id="LOAD-213" loadType="UNDEFINED" p0="265.0" q0="54.0" bus="BUS-213" connectableBus="BUS-213" p="265.0" q="54.0"/>
        </iidm:voltageLevel>
    </iidm:substation>
    <iidm:substation id="SUB-30">
        <iidm:voltageLevel id="VL-214" nominalV="1.0" topologyKind="BUS_BREAKER">
            <iidm:busBreakerTopology>
                <iidm:bus id="BUS-214" v="1.05" angle="-14.69217815403443"/>
            </iidm:busBreakerTopology>
            <iidm:generator id="GEN-214" energySource="OTHER" minP="0.0" maxP="0.0" voltageRegulatorOn="true" targetP="0.0" targetV="1.05" targetQ="125.28" bus="BUS-214" connectableBus="BUS-214" p="-0.0" q="-125.28873968925762">
                <iidm:minMaxReactiveLimits minQ="-50.0" maxQ="200.0"/>
            </iidm:generator>
            <iidm:load id="LOAD-214" loadType="UNDEFINED" p0="194.0" q0="39.0" bus="BUS-214" connectableBus="BUS-214" p="194.0" q="39.0"/>
        </iidm:voltageLevel>
    </iidm:substation>
    <iidm:substation id="SUB-31">
        <iidm:voltageLevel id="VL-215" nominalV="1.0" topologyKind="BUS_BREAKER">
            <iidm:busBreakerTopology>
                <iidm:bus id="BUS-215" v="1.0436728173841852" angle="-5.821327496640515"/>
            </iidm:busBreakerTopology>
            <iidm:generator id="GEN-215" energySource="OTHER" minP="22.0" maxP="55.0" voltageRegulatorOn="true" targetP="55.0" targetV="1.0437" targetQ="19.0" bus="BUS-215" connectableBus="BUS-215" p="-55.0" q="-18.999999999999993">
                <iidm:minMaxReactiveLimits minQ="-15.0" maxQ="19.0"/>
            </iidm:generator>
            <iidm:generator id="GEN-215#0" energySource="OTHER" minP="22.0" maxP="55.0" voltageRegulatorOn="true" targetP="55.0" targetV="1.0437" targetQ="19.0" bus="BUS-215" connectableBus="BUS-215" p="-55.0" q="-18.999999999999993">
                <iidm:minMaxReactiveLimits minQ="-15.0" maxQ="19.0"/>
            </iidm:generator>
            <iidm:generator id="GEN-215#1" energySource="OTHER" minP="0.0" maxP="50.0" voltageRegulatorOn="true" targetP="50.0" targetV="1.0437" targetQ="16.0" bus="BUS-215" connectableBus="BUS-215" p="-50.0" q="-16.0">
                <iidm:minMaxReactiveLimits minQ="-10.0" maxQ="16.0"/>
            </iidm:generator>
            <iidm:generator id="GEN-215#2" energySource="OTHER" minP="0.0" maxP="50.0" voltageRegulatorOn="true" targetP="50.0" targetV="1.0437" targetQ="16.0" bus="BUS-215" connectableBus="BUS-215" p="-50.0" q="-16.0">
                <iidm:minMaxReactiveLimits minQ="-10.0" maxQ="16.0"/>
            </iidm:generator>
            <iidm:generator id="GEN-215#3" energySource="OTHER" minP="0.0" maxP="50.0" voltageRegulatorOn="true" targetP="50.0" targetV="1.0437" targetQ="16.0" bus="BUS-215" connectableBus="BUS-215" p="-50.0" q="-16.0">
                <iidm:minMaxReactiveLimits minQ="-10.0" maxQ="16.0"/>
            </iidm:generator>
            <iidm:generator id="GEN-215#4" energySource="OTHER" minP="0.0" maxP="125.1" voltageRegulatorOn="true" targetP="0.0" targetV="1.0" targetQ="0.0" connectableBus="BUS-215">
                <iidm:minMaxReactiveLimits minQ="0.0" maxQ="0.0"/>
            </iidm:generator>
            <iidm:load id="LOAD-215" loadType="UNDEFINED" p0="317.0" q0="64.0" bus="BUS-215" connectableBus="BUS-215" p="317.0" q="64.0"/>
        </iidm:voltageLevel>
    </iidm:substation>
    <iidm:substation id="SUB-32">
        <iidm:voltageLevel id="VL-216" nominalV="1.0" topologyKind="BUS_BREAKER">
            <iidm:busBreakerTopology>
                <iidm:bus id="BUS-216" v="1.0473" angle="-5.885070599289064"/>
            </iidm:busBreakerTopology>
            <iidm:generator id="GEN-216" energySource="OTHER" minP="62.0" maxP="155.0" voltageRegulatorOn="true" targetP="155.0" targetV="1.0473" targetQ="80.0" bus="BUS-216" connectableBus="BUS-216" p="-155.0" q="-79.97958227645086">
                <iidm:minMaxReactiveLimits minQ="-50.0" maxQ="80.0"/>
            </iidm:generator>
            <iidm:load id="LOAD-216" loadType="UNDEFINED" p0="100.0" q0="20.0" bus="BUS-216" connectableBus="BUS-216" p="100.0" q="20.0"/>
        </iidm:voltageLevel>
    </iidm:substation>
    <iidm:substation id="SUB-33">
        <iidm:voltageLevel id="VL-217" nominalV="1.0" topologyKind="BUS_BREAKER">
            <iidm:busBreakerTopology>
                <iidm:bus id="BUS-217" v="1.0494223149059083" angle="-2.4774819086096462"/>
            </iidm:busBreakerTopology>
        </iidm:voltageLevel>
    </iidm:substation>
    <iidm:substation id="SUB-34">
        <iidm:voltageLevel id="VL-218" nominalV="1.0" topologyKind="BUS_BREAKER">
            <iidm:busBreakerTopology>
                <iidm:bus id="BUS-218" v="1.05" angle="-1.657855579440244"/>
            </iidm:busBreakerTopology>
            <iidm:generator id="GEN-218" energySource="OTHER" minP="170.0" maxP="355.0" voltageRegulatorOn="true" targetP="355.0" targetV="1.05" targetQ="60.3" bus="BUS-218" connectableBus="BUS-218" p="-355.0" q="-60.3117325375064">
                <iidm:minMaxReactiveLimits minQ="-25.0" maxQ="150.0"/>
            </iidm:generator>
            <iidm:load id="LOAD-218" loadType="UNDEFINED" p0="333.0" q0="68.0" bus="BUS-218" connectableBus="BUS-218" p="333.0" q="68.0"/>
        </iidm:voltageLevel>
    </iidm:substation>
    <iidm:substation id="SUB-35">
        <iidm:voltageLevel id="VL-219" nominalV="1.0" topologyKind="BUS_BREAKER">
            <iidm:busBreakerTopology>
                <iidm:bus id="BUS-219" v="1.040357611729062" angle="-6.11508722337122"/>
            </iidm:busBreakerTopology>
            <iidm:load id="LOAD-219" loadType="UNDEFINED" p0="181.0" q0="37.0" bus="BUS-219" connectableBus="BUS-219" p="181.0" q="37.0"/>
        </iidm:voltageLevel>
    </iidm:substation>
    <iidm:substation id="SUB-42">
        <iidm:voltageLevel id="VL-220" nominalV="1.0" topologyKind="BUS_BREAKER">
            <iidm:busBreakerTopology>
                <iidm:bus id="BUS-220" v="1.0440230891400284" angle="-4.440986962813457"/>
            </iidm:busBreakerTopology>
            <iidm:load id="LOAD-220" loadType="UNDEFINED" p0="128.0" q0="26.0" bus="BUS-220" connectableBus="BUS-220" p="128.0" q="26.0"/>
        </iidm:voltageLevel>
    </iidm:substation>
    <iidm:substation id="SUB-43">
        <iidm:voltageLevel id="VL-221" nominalV="1.0" topologyKind="BUS_BREAKER">
            <iidm:busBreakerTopology>
                <iidm:bus id="BUS-221" v="1.05" angle="-1.047806553571842"/>
            </iidm:busBreakerTopology>
            <iidm:generator id="GEN-221" energySource="OTHER" minP="170.0" maxP="355.0" voltageRegulatorOn="true" targetP="296.97" targetV="1.05" targetQ="-7.52" bus="BUS-221" connectableBus="BUS-221" p="-296.97" q="7.507517179279288">
                <iidm:minMaxReactiveLimits minQ="-25.0" maxQ="150.0"/>
            </iidm:generator>
        </iidm:voltageLevel>
    </iidm:substation>
    <iidm:substation id="SUB-45">
        <iidm:voltageLevel id="VL-222" nominalV="1.0" topologyKind="BUS_BREAKER">
            <iidm:busBreakerTopology>
                <iidm:bus id="BUS-222" v="1.05" angle="4.903020083559344"/>
            </iidm:busBreakerTopology>
            <iidm:generator id="GEN-222" energySource="OTHER" minP="0.0" maxP="50.0" voltageRegulatorOn="true" targetP="50.0" targetV="1.05" targetQ="-6.97" bus="BUS-222" connectableBus="BUS-222" p="-50.0" q="6.9730268653134875">
                <iidm:minMaxReactiveLimits minQ="-10.0" maxQ="16.0"/>
            </iidm:generator>
            <iidm:generator id="GEN-222#0" energySource="OTHER" minP="0.0" maxP="50.0" voltageRegulatorOn="true" targetP="50.0" targetV="1.05" targetQ="-6.97" bus="BUS-222" connectableBus="BUS-222" p="-50.0" q="6.9730268653134875">
                <iidm:minMaxReactiveLimits minQ="-10.0" maxQ="16.0"/>
            </iidm:generator>
            <iidm:generator id="GEN-222#1" energySource="OTHER" minP="0.0" maxP="50.0" voltageRegulatorOn="true" targetP="50.0" targetV="1.05" targetQ="-6.97" bus="BUS-222" connectableBus="BUS-222" p="-50.0" q="6.9730268653134875">
                <iidm:minMaxReactiveLimits minQ="-10.0" maxQ="16.0"/>
            </iidm:generator>
            <iidm:generator id="GEN-222#2" energySource="OTHER" minP="0.0" maxP="50.0" voltageRegulatorOn="true" targetP="50.0" targetV="1.05" targetQ="-6.97" bus="BUS-222" connectableBus="BUS-222" p="-50.0" q="6.9730268653134875">
                <iidm:minMaxReactiveLimits minQ="-10.0" maxQ="16.0"/>
            </iidm:generator>
            <iidm:generator id="GEN-222#3" energySource="OTHER" minP="0.0" maxP="50.0" voltageRegulatorOn="true" targetP="50.0" targetV="1.05" targetQ="-6.97" bus="BUS-222" connectableBus="BUS-222" p="-50.0" q="6.9730268653134875">
                <iidm:minMaxReactiveLimits minQ="-10.0" maxQ="16.0"/>
            </iidm:generator>
            <iidm:generator id="GEN-222#4" energySource="OTHER" minP="0.0" maxP="50.0" voltageRegulatorOn="true" targetP="50.0" targetV="1.05" targetQ="-6.97" bus="BUS-222" connectableBus="BUS-222" p="-50.0" q="6.9730268653134875">
                <iidm:minMaxReactiveLimits minQ="-10.0" maxQ="16.0"/>
            </iidm:generator>
        </iidm:voltageLevel>
    </iidm:substation>
    <iidm:substation id="SUB-37">
        <iidm:voltageLevel id="VL-223" nominalV="1.0" topologyKind="BUS_BREAKER">
            <iidm:busBreakerTopology>
                <iidm:bus id="BUS-223" v="1.05" angle="-2.8021461874383213"/>
            </iidm:busBreakerTopology>
            <iidm:generator id="GEN-223" energySource="OTHER" minP="62.0" maxP="155.0" voltageRegulatorOn="true" targetP="155.0" targetV="1.05" targetQ="-10.31" bus="BUS-223" connectableBus="BUS-223" p="-155.0" q="-0.11362962336162417">
                <iidm:minMaxReactiveLimits minQ="-50.0" maxQ="80.0"/>
            </iidm:generator>
            <iidm:generator id="GEN-223#0" energySource="OTHER" minP="62.0" maxP="155.0" voltageRegulatorOn="true" targetP="155.0" targetV="1.05" targetQ="-10.31" bus="BUS-223" connectableBus="BUS-223" p="-155.0" q="-0.11362962336162417">
                <iidm:minMaxReactiveLimits minQ="-50.0" maxQ="80.0"/>
            </iidm:generator>
            <iidm:generator id="GEN-223#1" energySource="OTHER" minP="140.0" maxP="350.0" voltageRegulatorOn="true" targetP="350.0" targetV="1.05" targetQ="20.59" bus="BUS-223" connectableBus="BUS-223" p="-350.0" q="-0.11362962336162417">
                <iidm:minMaxReactiveLimits minQ="-25.0" maxQ="150.0"/>
            </iidm:generator>
            <iidm:generator id="GEN-223#2" energySource="OTHER" minP="22.0" maxP="55.0" voltageRegulatorOn="true" targetP="22.0" targetV="1.05" targetQ="0.24" bus="BUS-223" connectableBus="BUS-223" p="-22.0" q="-0.11362962336162417">
                <iidm:minMaxReactiveLimits minQ="-15.0" maxQ="19.0"/>
            </iidm:generator>
            <iidm:generator id="GEN-223#3" energySource="OTHER" minP="22.0" maxP="55.0" voltageRegulatorOn="true" targetP="22.0" targetV="1.05" targetQ="0.24" bus="BUS-223" connectableBus="BUS-223" p="-22.0" q="-0.11362962336162417">
                <iidm:minMaxReactiveLimits minQ="-15.0" maxQ="19.0"/>
            </iidm:generator>
            <iidm:generator id="GEN-223#4" energySource="OTHER" minP="22.0" maxP="55.0" voltageRegulatorOn="true" targetP="22.0" targetV="1.05" targetQ="0.24" bus="BUS-223" connectableBus="BUS-223" p="-22.0" q="-0.11362962336162417">
                <iidm:minMaxReactiveLimits minQ="-15.0" maxQ="19.0"/>
            </iidm:generator>
        </iidm:voltageLevel>
    </iidm:substation>
    <iidm:substation id="SUB-38">
        <iidm:voltageLevel id="VL-301" nominalV="1.0" topologyKind="BUS_BREAKER">
            <iidm:busBreakerTopology>
                <iidm:bus id="BUS-301" v="1.05" angle="-34.068449883596735"/>
            </iidm:busBreakerTopology>
            <iidm:generator id="GEN-301" energySource="OTHER" minP="8.0" maxP="20.0" voltageRegulatorOn="true" targetP="8.0" targetV="1.05" targetQ="7.95" bus="BUS-301" connectableBus="BUS-301" p="-8.0" q="-10.0">
                <iidm:minMaxReactiveLimits minQ="0.0" maxQ="10.0"/>
            </iidm:generator>
            <iidm:generator id="GEN-301#0" energySource="OTHER" minP="8.0" maxP="20.0" voltageRegulatorOn="true" targetP="8.0" targetV="1.05" targetQ="7.95" bus="BUS-301" connectableBus="BUS-301" p="-8.0" q="-10.0">
                <iidm:minMaxReactiveLimits minQ="0.0" maxQ="10.0"/>
            </iidm:generator>
            <iidm:generator id="GEN-301#1" energySource="OTHER" minP="22.0" maxP="55.0" voltageRegulatorOn="true" targetP="44.0" targetV="1.05" targetQ="16.53" bus="BUS-301" connectableBus="BUS-301" p="-44.0" q="-14.494247987634218">
                <iidm:minMaxReactiveLimits minQ="-15.0" maxQ="19.0"/>
            </iidm:generator>
            <iidm:generator id="GEN-301#2" energySource="OTHER" minP="22.0" maxP="55.0" voltageRegulatorOn="true" targetP="44.0" targetV="1.05" targetQ="16.53" bus="BUS-301" connectableBus="BUS-301" p="-44.0" q="-14.494247987634218">
                <iidm:minMaxReactiveLimits minQ="-15.0" maxQ="19.0"/>
            </iidm:generator>
            <iidm:load id="LOAD-301" loadType="UNDEFINED" p0="108.0" q0="22.0" bus="BUS-301" connectableBus="BUS-301" p="108.0" q="22.0"/>
        </iidm:voltageLevel>
    </iidm:substation>
    <iidm:substation id="SUB-40">
        <iidm:voltageLevel id="VL-302" nominalV="1.0" topologyKind="BUS_BREAKER">
            <iidm:busBreakerTopology>
                <iidm:bus id="BUS-302" v="1.05" angle="-34.1342064622667"/>
            </iidm:busBreakerTopology>
            <iidm:generator id="GEN-302" energySource="OTHER" minP="8.0" maxP="20.0" voltageRegulatorOn="true" targetP="8.0" targetV="1.05" targetQ="6.16" bus="BUS-302" connectableBus="BUS-302" p="-8.0" q="-8.576179060678392">
                <iidm:minMaxReactiveLimits minQ="0.0" maxQ="10.0"/>
            </iidm:generator>
            <iidm:generator id="GEN-302#0" energySource="OTHER" minP="8.0" maxP="20.0" voltageRegulatorOn="true" targetP="8.0" targetV="1.05" targetQ="6.16" bus="BUS-302" connectableBus="BUS-302" p="-8.0" q="-8.576179060678392">
                <iidm:minMaxReactiveLimits minQ="0.0" maxQ="10.0"/>
            </iidm:generator>
            <iidm:generator id="GEN-302#1" energySource="OTHER" minP="22.0" maxP="55.0" voltageRegulatorOn="true" targetP="55.0" targetV="1.05" targetQ="10.99" bus="BUS-302" connectableBus="BUS-302" p="-55.0" q="-8.576179060678392">
                <iidm:minMaxReactiveLimits minQ="-15.0" maxQ="19.0"/>
            </iidm:generator>
            <iidm:generator id="GEN-302#2" energySource="OTHER" minP="22.0" maxP="55.0" voltageRegulatorOn="true" targetP="55.0" targetV="1.05" targetQ="10.99" bus="BUS-302" connectableBus="BUS-302" p="-55.0" q="-8.576179060678392">
                <iidm:minMaxReactiveLimits minQ="-15.0" maxQ="19.0"/>
            </iidm:generator>
            <iidm:load id="LOAD-302" loadType="UNDEFINED" p0="97.0" q0="20.0" bus="BUS-302" connectableBus="BUS-302" p="97.0" q="20.0"/>
        </iidm:voltageLevel>
    </iidm:substation>
    <iidm:substation id="SUB-15">
        <iidm:voltageLevel id="VL-303" nominalV="1.0" topologyKind="BUS_BREAKER">
            <iidm:busBreakerTopology>
                <iidm:bus id="BUS-303" v="0.9981389763433255" angle="-28.297709904435706"/>
            </iidm:busBreakerTopology>
            <iidm:generator id="GEN-303" energySource="OTHER" minP="0.0" maxP="847.0" voltageRegulatorOn="true" targetP="0.0" targetV="1.0" targetQ="0.0" connectableBus="BUS-303">
                <iidm:minMaxReactiveLimits minQ="0.0" maxQ="0.0"/>
            </iidm:generator>
            <iidm:load id="LOAD-303" loadType="UNDEFINED" p0="180.0" q0="37.0" bus="BUS-303" connectableBus="BUS-303" p="180.0" q="37.0"/>
        </iidm:voltageLevel>
        <iidm:voltageLevel id="VL-324" nominalV="1.0" topologyKind="BUS_BREAKER">
            <iidm:busBreakerTopology>
                <iidm:bus id="BUS-324" v="0.9992155302195054" angle="-16.065166194799048"/>
            </iidm:busBreakerTopology>
            <iidm:generator id="GEN-324" energySource="OTHER" minP="0.0" maxP="49.7" voltageRegulatorOn="true" targetP="0.0" targetV="1.0" targetQ="0.0" connectableBus="BUS-324">
                <iidm:minMaxReactiveLimits minQ="0.0" maxQ="0.0"/>
            </iidm:generator>
            <iidm:generator id="GEN-324#0" energySource="OTHER" minP="0.0" maxP="51.6" voltageRegulatorOn="true" targetP="0.0" targetV="1.0" targetQ="0.0" connectableBus="BUS-324">
                <iidm:minMaxReactiveLimits minQ="0.0" maxQ="0.0"/>
            </iidm:generator>
            <iidm:generator id="GEN-324#1" energySource="OTHER" minP="0.0" maxP="51.0" voltageRegulatorOn="true" targetP="0.0" targetV="1.0" targetQ="0.0" connectableBus="BUS-324">
                <iidm:minMaxReactiveLimits minQ="0.0" maxQ="0.0"/>
            </iidm:generator>
        </iidm:voltageLevel>
        <iidm:twoWindingsTransformer id="TWT-303-324" r="2.0E-5" x="8.4E-4" g="0.0" b="0.0" ratedU1="1.015" ratedU2="1.0" bus1="BUS-303" connectableBus1="BUS-303" voltageLevelId1="VL-303" bus2="BUS-324" connectableBus2="BUS-324" voltageLevelId2="VL-324" p1="-247.5217783724311" q1="13.923334384366036" p2="248.7928759636658" q2="39.46276444748757"/>
    </iidm:substation>
    <iidm:substation id="SUB-49">
        <iidm:voltageLevel id="VL-304" nominalV="1.0" topologyKind="BUS_BREAKER">
            <iidm:busBreakerTopology>
                <iidm:bus id="BUS-304" v="1.007346355849956" angle="-34.32163490786378"/>
            </iidm:busBreakerTopology>
            <iidm:load id="LOAD-304" loadType="UNDEFINED" p0="74.0" q0="15.0" bus="BUS-304" connectableBus="BUS-304" p="74.0" q="15.0"/>
        </iidm:voltageLevel>
    </iidm:substation>
    <iidm:substation id="SUB-51">
        <iidm:voltageLevel id="VL-305" nominalV="1.0" topologyKind="BUS_BREAKER">
            <iidm:busBreakerTopology>
                <iidm:bus id="BUS-305" v="1.0283078039526392" angle="-35.06295345553645"/>
            </iidm:busBreakerTopology>
            <iidm:load id="LOAD-305" loadType="UNDEFINED" p0="71.0" q0="14.0" bus="BUS-305" connectableBus="BUS-305" p="71.0" q="14.0"/>
        </iidm:voltageLevel>
    </iidm:substation>
    <iidm:substation id="SUB-53">
        <iidm:voltageLevel id="VL-306" nominalV="1.0" topologyKind="BUS_BREAKER">
            <iidm:busBreakerTopology>
                <iidm:bus id="BUS-306" v="1.019612769498658" angle="-36.58461835207234"/>
            </iidm:busBreakerTopology>
            <iidm:load id="LOAD-306" loadType="UNDEFINED" p0="136.0" q0="28.0" bus="BUS-306" connectableBus="BUS-306" p="136.0" q="28.0"/>
            <iidm:shunt id="SHUNT-306" sectionCount="1" voltageRegulatorOn="false" bus="BUS-306" connectableBus="BUS-306" q="103.96101997247236">
                <iidm:shuntLinearModel bPerSection="-100.0" maximumSectionCount="1"/>
            </iidm:shunt>
        </iidm:voltageLevel>
    </iidm:substation>
    <iidm:substation id="SUB-55">
...